Circuit: * C:\Users\BrainW7\Documents\BM Documents\ELECTRONIC\ELECTRONIC DESING\CtrlCocinaElect\Simulacion.asc

Warning: Multiple definitions of model "2scr375p" Type: BJT
Warning: Multiple definitions of model "bc857b" Type: BJT
Warning: Multiple definitions of model "bc847c" Type: BJT
Warning: Multiple definitions of model "bc847b" Type: BJT
Direct Newton iteration for .op point succeeded.

Date: Fri Jun 10 15:10:03 2022
Total elapsed time: 2.252 seconds.

tnom = 27
temp = 27
method = modified trap
totiter = 17026
traniter = 16997
tranpoints = 4588
accept = 3501
rejected = 1087
matrix size = 28
fillins = 36
solver = Normal
Matrix Compiler1: 3.38 KB object code size  2.6/2.1/[2.0]
Matrix Compiler2: 2.82 KB object code size  1.0/1.7/[1.0]

